opendss/LVTestCase/data/PV/PV_367.txt
New generator.m_gen14 Phases=1 Bus1=289.1 kV=0.23 kW=1 PF=0.95 Yearly=PV_Shape_115
New generator.m_gen41 Phases=1 Bus1=755.2 kV=0.23 kW=1 PF=0.95 Yearly=PV_Shape_41
New generator.m_gen27 Phases=1 Bus1=539.3 kV=0.23 kW=1 PF=0.95 Yearly=NM_Shape_56
New generator.m_gen18 Phases=1 Bus1=337.3 kV=0.23 kW=1 PF=0.95 Yearly=PV_Shape_108
New generator.m_gen16 Phases=1 Bus1=320.3 kV=0.23 kW=1 PF=0.95 Yearly=PV_Shape_130
New generator.m_gen22 Phases=1 Bus1=388.1 kV=0.23 kW=1 PF=0.95 Yearly=PV_Shape_15
New generator.m_gen2 Phases=1 Bus1=47.2 kV=0.23 kW=1 PF=0.95 Yearly=PV_Shape_122
New generator.m_gen24 Phases=1 Bus1=458.3 kV=0.23 kW=1 PF=0.95 Yearly=PV_Shape_120
New generator.m_gen4 Phases=1 Bus1=73.1 kV=0.23 kW=1 PF=0.95 Yearly=NM_Shape_74
New generator.m_gen1 Phases=1 Bus1=34.1 kV=0.23 kW=1 PF=0.95 Yearly=PV_Shape_36
New generator.m_gen8 Phases=1 Bus1=208.3 kV=0.23 kW=1 PF=0.95 Yearly=PV_Shape_8
